feeder-models/OpenDSS/Feeder 2/Shunts.dss
New "Reactor.Reac274" kv=13.800000000 phases=3 Z0=[93231.674, -69915.828] Z1=[-8.7788612, -31106.46] bus1=B_14.1.2.3 bus2=B_14.0.0.0
New "Reactor.Reac276" kv=13.800000000 phases=3 Z0=[879694.14, -16623513] Z1=[1147.1338, -5401134.4] bus1=B_14.1.2.3 bus2=B_14.0.0.0
New "Reactor.Reac292" kv=13.800000000 phases=3 Z0=[4492.8011, -828167.21] Z1=[68.535118, -679310.69] bus1=B_14.1.2.3 bus2=B_14.0.0.0
New "Reactor.Reac270" kv=13.800000000 phases=3 Z0=[-568.90501, -951488.7] Z1=[-240.04741, -618055.06] bus1=B_7.1.2.3 bus2=B_7.0.0.0
New "Reactor.Reac291" kv=13.800000000 phases=3 Z0=[135.23153, -25014.177] Z1=[2.0074639, -20437.364] bus1=B_7.1.2.3 bus2=B_7.0.0.0
New "Reactor.Reac38" kv=13.800000000 phases=3 Z0=[-391981.25, -683391.87] Z1=[290186.91, -7342896.8] bus1=B_4 bus2=B_4.0.0.0
New "Reactor.Reac244" kv=13.800000000 phases=3 Z0=[-29597.047, -1325889.3] Z1=[-1594.9769, -677070.98] bus1=B_4.1.2.3 bus2=B_4.0.0.0
New "Reactor.Reac253" kv=13.800000000 phases=3 Z0=[0.0053794487, -4922081.2] Z1=[0.0021895177, -1570088.4] bus1=B_4.1.2.3 bus2=B_4.0.0.0
New "Reactor.Reac256" kv=13.800000000 phases=3 Z0=[67172.25, -3231637.9] Z1=[62075.292, -985115.52] bus1=B_4.1.2.3 bus2=B_4.0.0.0
New "Reactor.Reac269" kv=13.800000000 phases=3 Z0=[-2092.9861, -3292641.2] Z1=[-1011.1212, -2288532.9] bus1=B_4.1.2.3 bus2=B_4.0.0.0
New "Reactor.Reac294" kv=13.800000000 phases=3 Z0=[70410.962, -3379792.2] Z1=[34751.775, -1381673.7] bus1=B_4.1.2.3 bus2=B_4.0.0.0
New "Reactor.Reac296" kv=13.800000000 phases=3 Z0=[6948.3977, -11872.168] Z1=[28213.573, -546135.02] bus1=B_4.1.2.3 bus2=B_4.0.0.0
New "Reactor.Reac298" kv=13.800000000 phases=3 Z0=[18581.349, -32800.56] Z1=[39035.223, -978514.45] bus1=B_4.1.2.3 bus2=B_4.0.0.0
New "Reactor.Reac300" kv=13.800000000 phases=3 Z0=[16814.728, -30010.452] Z1=[25673.482, -884867.35] bus1=B_4.1.2.3 bus2=B_4.0.0.0
New "Reactor.Reac302" kv=13.800000000 phases=3 Z0=[3433.1661, -6892.1855] Z1=[1212.5081, -64909.478] bus1=B_4.1.2.3 bus2=B_4.0.0.0
New "Reactor.Reac310" kv=13.800000000 phases=3 Z0=[42955.533, -96037.733] Z1=[4011.9085, -561718.68] bus1=B_4.1.2.3 bus2=B_4.0.0.0
New "Reactor.Reac312" kv=13.800000000 phases=3 Z0=[17252.614, -45899.54] Z1=[-84397.479, -273521.63] bus1=B_4.1.2.3 bus2=B_4.0.0.0
New "Reactor.Reac314" kv=13.800000000 phases=3 Z0=[28142.976, -80103.795] Z1=[-52768.567, -434951.77] bus1=B_4.1.2.3 bus2=B_4.0.0.0
New "Reactor.Reac338" kv=13.800000000 phases=3 Z0=[-261070.05, -9122587.3] Z1=[-24806.25, -8064919.4] bus1=B_4.1.2.3 bus2=B_4.0.0.0
New "Reactor.Reac340" kv=13.800000000 phases=3 Z0=[89208.386, 82027.421] Z1=[-4152.7393, -1565221.3] bus1=B_4.1.2.3 bus2=B_4.0.0.0
New "Reactor.Reac30" kv=7.967433715 phases=1 R=3176.3073 X=-516216 bus1=B_6.2 bus2=B_6.0.0.0
New "Reactor.Reac193" kv=13.800000000 phases=3 Z0=[0.018380656, -5252907.6] Z1=[-0.0024937332, -1675617.5] bus1=B_6.1.2.3 bus2=B_6.0.0.0
New "Reactor.Reac313" kv=13.800000000 phases=3 Z0=[2918.5901, -6966.4621] Z1=[704.24061, -30600.95] bus1=B_6.1.2.3 bus2=B_6.0.0.0
New "Reactor.Reac332" kv=13.800000000 phases=3 Z0=[7.9442784, -25494.834] Z1=[48.062071, -22294.823] bus1=B_6.1.2.3 bus2=B_6.0.0.0
New "Reactor.Reac334" kv=13.800000000 phases=3 Z0=[-1009.8704, 345.84884] Z1=[-163.17768, -15932.583] bus1=B_6.1.2.3 bus2=B_6.0.0.0
New "Reactor.Reac67" kv=13.800000000 phases=3 Z0=[-1586.1308, 1772.1252] Z1=[5.2007106, -12998.07] bus1=B_12 bus2=B_12.0.0.0
New "Reactor.Reac203" kv=13.800000000 phases=3 Z0=[362453.75, -4171044.2] Z1=[701.85077, -276348.27] bus1=B_12.1.2.3 bus2=B_12.0.0.0
New "Reactor.Reac227" kv=13.800000000 phases=3 Z0=[7306244.8, 2237889.6] Z1=[-4611.9275, -341224.98] bus1=B_12.1.2.3 bus2=B_12.0.0.0
New "Reactor.Reac229" kv=13.800000000 phases=3 Z0=[-2168.749, 697.85108] Z1=[-94.051714, -35242.969] bus1=B_12.1.2.3 bus2=B_12.0.0.0
New "Reactor.Reac333" kv=13.800000000 phases=3 Z0=[-8396.363, 1792.8469] Z1=[24029.407, -167117.1] bus1=B_12.1.2.3 bus2=B_12.0.0.0
New "Reactor.Reac191" kv=13.800000000 phases=3 Z0=[-223211.53, -1681224.5] Z1=[-125.35365, -29266.63] bus1=B_8.1.2.3 bus2=B_8.0.0.0
New "Reactor.Reac221" kv=13.800000000 phases=3 Z0=[-154150.93, -5409208] Z1=[4653.5953, -349780.32] bus1=B_8.1.2.3 bus2=B_8.0.0.0
New "Reactor.Reac237" kv=13.800000000 phases=3 Z0=[-227071.29, -11097843] Z1=[15374.815, -1252219.4] bus1=B_8.1.2.3 bus2=B_8.0.0.0
New "Reactor.Reac272" kv=13.800000000 phases=3 Z0=[0.02202077, -2451625.7] Z1=[0.0040739952, -782040.99] bus1=B_8.1.2.3 bus2=B_8.0.0.0
New "Reactor.Reac304" kv=13.800000000 phases=3 Z0=[6490.2412, -14615.25] Z1=[-40.455619, -52605.134] bus1=B_8.1.2.3 bus2=B_8.0.0.0
New "Reactor.Reac305" kv=13.800000000 phases=3 Z0=[-582.97104, -172966.63] Z1=[303.91282, -121898.38] bus1=B_8.1.2.3 bus2=B_8.0.0.0
New "Reactor.Reac308" kv=13.800000000 phases=3 Z0=[20.454641, -47485.632] Z1=[19.421296, -46274.87] bus1=B_8.1.2.3 bus2=B_8.0.0.0
New "Reactor.Reac331" kv=13.800000000 phases=3 Z0=[-848.91502, -375857.59] Z1=[13.492936, -329456.18] bus1=B_8.1.2.3 bus2=B_8.0.0.0
New "Reactor.Reac336" kv=13.800000000 phases=3 Z0=[-606.8172, -406759.45] Z1=[-705.42356, -281266.98] bus1=B_8.1.2.3 bus2=B_8.0.0.0
New "Reactor.Reac1" kv=7.967433715 phases=1 R=-2796.3238 X=-888436.02 bus1=B_11.3 bus2=B_11.0.0.0
New "Reactor.Reac223" kv=13.800000000 phases=3 Z0=[-487.73411, -4246820] Z1=[1444.6819, -1387932.5] bus1=B_11.1.2.3 bus2=B_11.0.0.0
New "Reactor.Reac319" kv=13.800000000 phases=3 Z0=[-888.96222, -452352.31] Z1=[-22.703293, -362907.16] bus1=B_11.1.2.3 bus2=B_11.0.0.0
New "Reactor.Reac322" kv=13.800000000 phases=3 Z0=[0.07674403, -1059964.6] Z1=[0.022820913, -338116.64] bus1=B_11.1.2.3 bus2=B_11.0.0.0
New "Reactor.Reac324" kv=13.800000000 phases=3 Z0=[1.2374437, -5847211.5] Z1=[0.36770135, -1865194.1] bus1=B_11.1.2.3 bus2=B_11.0.0.0
New "Reactor.Reac326" kv=13.800000000 phases=3 Z0=[3.3289126, -10973531] Z1=[0.98762067, -3500432.1] bus1=B_11.1.2.3 bus2=B_11.0.0.0
New "Reactor.Reac328" kv=13.800000000 phases=3 Z0=[3963.095, -6927864.3] Z1=[2430.5408, -5425325.5] bus1=B_11.1.2.3 bus2=B_11.0.0.0
New "Reactor.Reac330" kv=13.800000000 phases=3 Z0=[493.38865, -672984.46] Z1=[286.39552, -512915.55] bus1=B_11.1.2.3 bus2=B_11.0.0.0
New "Reactor.Reac335" kv=13.800000000 phases=3 Z0=[-1313.868, -793089.51] Z1=[-546.85167, -552752.32] bus1=B_11.1.2.3 bus2=B_11.0.0.0
New "Reactor.Reac226" kv=13.800000000 phases=3 Z0=[-175.74192, -100417.73] Z1=[24.340575, -81438.206] bus1=B_2.1.2.3 bus2=B_2.0.0.0
New "Reactor.Reac316" kv=13.800000000 phases=3 Z0=[355.8354, -454.54478] Z1=[1788.4379, -19581.145] bus1=B_2.1.2.3 bus2=B_2.0.0.0
New "Reactor.Reac329" kv=13.800000000 phases=3 Z0=[83.129767, -116379.57] Z1=[45.035291, -85689.399] bus1=B_2.1.2.3 bus2=B_2.0.0.0
New "Reactor.Reac358" kv=13.800000000 phases=3 Z0=[44170.643, -3627.8411] Z1=[397717.87, -576796.56] bus1=B_2.1.2.3 bus2=B_2.0.0.0
New "Reactor.Reac357" kv=13.800000000 phases=3 Z0=[284.02712, -421.03749] Z1=[-1392.6228, -15381.617] bus1=B_3.1.2.3 bus2=B_3.0.0.0
New "Reactor.Reac27" kv=13.800000000 phases=3 Z0=[9404.3107, -520642.84] Z1=[-71.418119, -137340.16] bus1=B_9 bus2=B_9.0.0.0
New "Reactor.Reac150" kv=7.967433715 phases=1 R=-27964.921 X=-309436.05 bus1=B_9.3 bus2=B_9.0.0.0
New "Reactor.Reac152" kv=7.967433715 phases=1 R=-8810.2923 X=-1096528.6 bus1=B_9.3 bus2=B_9.0.0.0
New "Reactor.Reac154" kv=7.967433715 phases=1 R=-22717.422 X=-631470.64 bus1=B_9.3 bus2=B_9.0.0.0
New "Reactor.Reac156" kv=7.967433715 phases=1 R=-29419.875 X=-2208744.8 bus1=B_9.3 bus2=B_9.0.0.0
New "Reactor.Reac157" kv=13.800000000 phases=3 Z0=[0.036159759, -2056659] Z1=[0.0080277677, -656051.06] bus1=B_9.1.2.3 bus2=B_9.0.0.0
New "Reactor.Reac287" kv=13.800000000 phases=3 Z0=[6927.2013, -25975.46] Z1=[-9.9848435, -41191.934] bus1=B_9.1.2.3 bus2=B_9.0.0.0
New "Reactor.Reac290" kv=7.967433715 phases=1 R=305038.03 X=-389482.8 bus1=B_9.3 bus2=B_9.0.0.0
New "Reactor.Reac303" kv=13.800000000 phases=3 Z0=[51433.683, -115803.42] Z1=[-319.34809, -416853.11] bus1=B_9.1.2.3 bus2=B_9.0.0.0
New "Reactor.Reac360" kv=7.967433715 phases=1 R=1150376.5 X=-1697918.2 bus1=B_9.3 bus2=B_9.0.0.0
New "Reactor.Reac362" kv=7.967433715 phases=1 R=142963.95 X=-316191.92 bus1=B_9.3 bus2=B_9.0.0.0
New "Reactor.Reac364" kv=7.967433715 phases=1 R=433916.84 X=-1281772.9 bus1=B_9.3 bus2=B_9.0.0.0
New "Reactor.Reac366" kv=7.967433715 phases=1 R=346002.93 X=-1099513.2 bus1=B_9.3 bus2=B_9.0.0.0
New "Reactor.Reac368" kv=7.967433715 phases=1 R=551160.04 X=-1910990.6 bus1=B_9.3 bus2=B_9.0.0.0
New "Reactor.Reac370" kv=7.967433715 phases=1 R=3627606.6 X=-13037323 bus1=B_9.3 bus2=B_9.0.0.0
New "Reactor.Reac2" kv=7.967433715 phases=1 R=1925.8889 X=-810689.55 bus1=B_10.3 bus2=B_10.0.0.0
New "Reactor.Reac369" kv=7.967433715 phases=1 R=-9206.2053 X=-275183.47 bus1=B_10.3 bus2=B_10.0.0.0
New "Reactor.Reac246" kv=13.800000000 phases=3 Z0=[7484.0234, -5422888.4] Z1=[-14745.416, -2395285.6] bus1=B_5.1.2.3 bus2=B_5.0.0.0
New "Reactor.Reac248" kv=13.800000000 phases=3 Z0=[640.75205, -2217.9623] Z1=[-1510.4392, -52611.786] bus1=B_5.1.2.3 bus2=B_5.0.0.0
New "Reactor.Reac266" kv=13.800000000 phases=3 Z0=[587.78257, -2002.9389] Z1=[133.28785, -47749.221] bus1=B_5.1.2.3 bus2=B_5.0.0.0
New "Reactor.Reac268" kv=13.800000000 phases=3 Z0=[581.86314, -1963.5637] Z1=[1317.5537, -46874.585] bus1=B_5.1.2.3 bus2=B_5.0.0.0
New "Reactor.Reac339" kv=13.800000000 phases=3 Z0=[7673.3156, 7482.1333] Z1=[-63.380826, -138143.32] bus1=B_5.1.2.3 bus2=B_5.0.0.0
New "Reactor.Reac342" kv=13.800000000 phases=3 Z0=[1448.8649, -5103.9478] Z1=[531.86733, -122951.34] bus1=B_5.1.2.3 bus2=B_5.0.0.0
New "Reactor.Reac344" kv=13.800000000 phases=3 Z0=[6426.1266, -22986.941] Z1=[-1800.8689, -549538.52] bus1=B_5.1.2.3 bus2=B_5.0.0.0
New "Reactor.Reac346" kv=13.800000000 phases=3 Z0=[4795.6939, -17266.068] Z1=[-2668.6315, -411828.77] bus1=B_5.1.2.3 bus2=B_5.0.0.0
New "Reactor.Reac348" kv=13.800000000 phases=3 Z0=[1578.1619, -5768.0846] Z1=[-1829.2424, -135845.86] bus1=B_5.1.2.3 bus2=B_5.0.0.0
New "Reactor.Reac350" kv=13.800000000 phases=3 Z0=[811.27291, -7024.8068] Z1=[-1712.9861, -142556.27] bus1=B_5.1.2.3 bus2=B_5.0.0.0
New "Reactor.Reac354" kv=13.800000000 phases=3 Z0=[420.57308, -6505.437] Z1=[29153.128, -114350.78] bus1=B_5.1.2.3 bus2=B_5.0.0.0
New "Reactor.Reac356" kv=13.800000000 phases=3 Z0=[2053.4677, -1117.3623] Z1=[-3446.016, -65608.476] bus1=B_5.1.2.3 bus2=B_5.0.0.0
New "Reactor.Reac82" kv=13.800000000 phases=3 Z0=[-234885.37, -565385.75] Z1=[-3699.1876, -630140.4] bus1=B_13 bus2=B_13.0.0.0
New "Reactor.Reac233" kv=13.800000000 phases=3 Z0=[1004.3331, 95.923414] Z1=[4947.701, -104464.39] bus1=B_13.1.2.3 bus2=B_13.0.0.0
New "Reactor.Reac351" kv=13.800000000 phases=3 Z0=[487.90331, 67.376763] Z1=[4531.0543, -37091.439] bus1=B_13.1.2.3 bus2=B_13.0.0.0
New "Reactor.Reac355" kv=13.800000000 phases=3 Z0=[1185.8842, -788.49097] Z1=[-12374.615, -44471.089] bus1=B_13.1.2.3 bus2=B_13.0.0.0
